CHEMBL1997924
  xed2sdf           3D
 
 44 48  0  0  0  0  0  0  0  0999 V2000
   39.6983   18.0212    2.2931 C   0  0  0  0  0  0  0  0  0  0  0  0
   38.7664   17.8408    3.3304 C   0  0  0  0  0  0  0  0  0  0  0  0
   38.6477   18.8349    4.3096 C   0  0  0  0  0  0  0  0  0  0  0  0
   39.4445   19.9926    4.2168 C   0  0  0  0  0  0  0  0  0  0  0  0
   39.2929   21.0411    5.2678 C   0  0  0  0  0  0  0  0  0  0  0  0
   38.3121   20.7455    6.3015 N   0  0  0  0  0  0  0  0  0  0  0  0
   38.5260   19.9115    7.4088 C   0  0  0  0  0  0  0  0  0  0  0  0
   39.7505   19.3551    7.4908 N   0  0  0  0  0  0  0  0  0  0  0  0
   40.0309   18.5107    8.5340 C   0  0  0  0  0  0  0  0  0  0  0  0
   41.3070   17.9360    8.6142 N   0  0  0  0  0  0  0  0  0  0  0  0
   42.3919   18.0615    7.8049 C   0  0  0  0  0  0  0  0  0  0  0  0
   42.5714   18.8542    6.6283 C   0  0  0  0  0  0  0  0  0  0  0  0
   43.8610   18.6135    6.1929 C   0  0  0  0  0  0  0  0  0  0  0  0
   44.6852   19.1429    4.9922 C   0  0  0  0  0  0  0  0  0  0  0  0
   44.0177   20.0338    3.9739 C   0  0  0  0  0  0  0  0  0  0  0  0
   44.3829   18.6272    3.6000 C   0  0  0  0  0  0  0  0  0  0  0  0
   44.3792   17.7353    7.1006 N   0  0  0  0  0  0  0  0  0  0  0  0
   43.5288   17.3995    8.0907 N   0  0  0  0  0  0  0  0  0  0  0  0
   38.9939   18.3358    9.4945 C   0  0  0  0  0  0  0  0  0  0  0  0
   38.9971   17.4484   10.9821 S   0  0  0  0  0  0  0  0  0  0  0  0
   37.3690   17.8492   11.3575 C   0  0  0  0  0  0  0  0  0  0  0  0
   36.8322   18.6690   10.3825 C   0  0  0  0  0  0  0  0  0  0  0  0
   37.7572   18.9637    9.3218 C   0  0  0  0  0  0  0  0  0  0  0  0
   37.4895   19.7656    8.2543 N   0  0  0  0  0  0  0  0  0  0  0  0
   40.3830   20.2146    3.1782 C   0  0  0  0  0  0  0  0  0  0  0  0
   40.4882   19.1862    2.2204 C   0  0  0  0  0  0  0  0  0  0  0  0
   39.8105   17.2550    1.5403 H   0  0  0  0  0  0  0  0  0  0  0  0
   38.1536   16.9524    3.3712 H   0  0  0  0  0  0  0  0  0  0  0  0
   37.9525   18.7150    5.1273 H   0  0  0  0  0  0  0  0  0  0  0  0
   40.2518   21.1761    5.7459 H   0  0  0  0  0  0  0  0  0  0  0  0
   39.0000   21.9605    4.7826 H   0  0  0  0  0  0  0  0  0  0  0  0
   37.3398   21.2062    6.2085 H   0  0  0  0  0  0  0  0  0  0  0  0
   41.4526   17.2832    9.4621 H   0  0  0  0  0  0  0  0  0  0  0  0
   41.8448   19.5097    6.1713 H   0  0  0  0  0  0  0  0  0  0  0  0
   45.7233   19.3604    5.1960 H   0  0  0  0  0  0  0  0  0  0  0  0
   42.9797   20.3068    4.0950 H   0  0  0  0  0  0  0  0  0  0  0  0
   44.5605   20.8634    3.5455 H   0  0  0  0  0  0  0  0  0  0  0  0
   43.6083   17.8888    3.4542 H   0  0  0  0  0  0  0  0  0  0  0  0
   45.1891   18.4454    2.9047 H   0  0  0  0  0  0  0  0  0  0  0  0
   45.3833   17.3437    7.0312 H   0  0  0  0  0  0  0  0  0  0  0  0
   36.8384   17.5078   12.2340 H   0  0  0  0  0  0  0  0  0  0  0  0
   35.8219   19.0490   10.4143 H   0  0  0  0  0  0  0  0  0  0  0  0
   40.9790   21.1137    3.1242 H   0  0  0  0  0  0  0  0  0  0  0  0
   41.1928   19.2937    1.4090 H   0  0  0  0  0  0  0  0  0  0  0  0
  1  2  2  0
  1 26  1  0
  2  3  1  0
  3  4  2  0
  4  5  1  0
  4 25  1  0
  5  6  1  0
  6  7  1  0
  7  8  2  0
  7 24  1  0
  8  9  1  0
  9 10  1  0
  9 19  2  0
 10 11  1  0
 11 12  1  0
 11 18  2  0
 12 13  2  0
 13 14  1  0
 13 17  1  0
 14 15  1  0
 14 16  1  0
 15 16  1  0
 17 18  1  0
 19 20  1  0
 19 23  1  0
 20 21  1  0
 21 22  2  0
 22 23  1  0
 23 24  2  0
 25 26  2  0
  1 27  1  0
  2 28  1  0
  3 29  1  0
  5 30  1  0
  5 31  1  0
  6 32  1  0
 10 33  1  0
 12 34  1  0
 14 35  1  0
 15 36  1  0
 15 37  1  0
 16 38  1  0
 16 39  1  0
 17 40  1  0
 21 41  1  0
 22 42  1  0
 25 43  1  0
 26 44  1  0
M  END
>  <score>
0.715

>  <SMILES>
c1ccc(CNc2nc(Nc3cc(C4CC4)[nH]n3)c3sccc3n2)cc1

>  <name>
CHEMBL1997924

>  <tanimoto_combination>
0.71510124

>  <tanimoto_shape>
0.7939282

>  <tanimoto_color>
0.6362742

>  <overlap_volume>
1056.2828

>  <overlap_color>
42.145546

>  <tanimoto_combo_legacy>
1.4302025

>  <query_name>
31

>  <query_SMILES>
Cc1cc(Nc2nccs2)nc(N(C)Cc2ccc(C#N)c(Cl)c2)n1

>  <Total Formal Charge>
0

>  <Favorite_cresset>
false

>  <MW_cresset>
362.5

>  <#Atoms_cresset>
26

>  <SlogP_cresset>
4.6

>  <TPSA_cresset>
78.5

>  <Flexibility_cresset>
2.8

>  <HBA_cresset>
6

>  <HBD_cresset>
3

>  <Rof5_cresset>
0

>  <Confs_cresset>
0

>  <Poses_cresset>
0

>  <_cresset_fieldpoints2>
 2
    -5      37.561371      20.160023       1.672242     -3.9327
    -5      40.261715      17.283348       5.955245     -8.4186
    -5      35.643604      19.729912       7.747961     -7.9484
    -5      36.310059      21.200094       8.719143     -7.9342
    -5      40.979820      20.997734       8.055092     -7.2485
    -5      43.499413      15.492850       7.921478    -10.2910
    -5      44.524372      17.931780       9.636749    -10.3649
    -6      47.068863      17.397221       6.124981      8.4295
    -6      41.904514      22.567299       4.285372      4.2194
    -6      36.241314      22.469170       5.279299      8.5737
    -6      41.673607      16.036385      10.897985      5.0639
    -6      34.889511      17.889069      12.828286      3.9579
    -7      38.719597      14.798931       1.813811     -0.9777
    -7      42.928535      17.358257       0.943257     -1.6939
    -7      40.211868      16.424124       5.957572     -2.7631
    -7      37.251114      20.675240       1.723184     -1.8402
    -7      36.336319      21.205116       3.754627     -1.8135
    -7      42.535400      22.120323       5.929795     -2.5477
    -7      38.690239      23.231949       7.567925     -1.4456
    -7      41.356869      21.559292       8.047218     -2.4906
    -7      37.984116      16.596071       6.676606     -2.5437
    -7      39.581600      20.707951      11.710741     -1.8590
    -7      47.280224      20.303312       3.150322     -1.3838
    -7      43.068619      21.024426       1.104283     -1.8287
    -7      45.293732      18.913658       9.276913     -1.6050
    -7      37.522144      15.635656       8.402088     -1.8810
    -7      41.639008      16.573538       4.552398     -3.0904
    -7      41.874992      19.220158      11.193542     -1.9812
    -7      40.079185      15.208481       8.631431     -1.9387
    -7      34.197781      18.377323      12.518085     -0.9064
    -8      39.577858      19.017708       3.262398      6.9202
    -8      44.040253      19.116087       4.633287      5.8322
    -8      38.091698      18.161541      10.387395      6.9862
    -8      41.256870      18.121019       8.389479      1.4373

$$$$
