CONF_41_A (1)
  xed2sdf           3D
 
 40 42  0  0  0  0  0  0  0  0999 V2000
   47.9965   19.3185    2.8079 C   0  0  0  0  0  0  0  0  0  0  0  0
   46.7784   19.6702    3.6005 C   0  0  0  0  0  0  0  0  0  0  0  0
   46.0062   20.6335    3.1151 N   0  0  0  0  0  0  0  0  0  0  0  0
   44.9224   20.9772    3.8150 C   0  0  0  0  0  0  0  0  0  0  0  0
   44.5341   20.4030    4.9628 N   0  0  0  0  0  0  0  0  0  0  0  0
   45.3023   19.4298    5.4346 C   0  0  0  0  0  0  0  0  0  0  0  0
   46.4723   19.0221    4.7871 C   0  0  0  0  0  0  0  0  0  0  0  0
   44.9035   18.8155    6.5912 N   0  0  0  0  0  0  0  0  0  0  0  0
   43.7316   19.0545    7.2402 C   0  0  0  0  0  0  0  0  0  0  0  0
   43.3638   18.3987    8.2890 N   0  0  0  0  0  0  0  0  0  0  0  0
   42.1496   18.8230    8.7252 C   0  0  0  0  0  0  0  0  0  0  0  0
   41.5832   19.8158    8.0013 C   0  0  0  0  0  0  0  0  0  0  0  0
   42.6128   20.2714    6.6826 S   0  0  0  0  0  0  0  0  0  0  0  0
   44.1629   21.9830    3.3364 N   0  0  0  0  0  0  0  0  0  0  0  0
   44.4336   22.5832    2.0549 C   0  0  0  0  0  0  0  0  0  0  0  0
   42.9777   22.3959    4.0391 C   0  0  0  0  0  0  0  0  0  0  0  0
   41.7838   21.4940    3.8385 C   0  0  0  0  0  0  0  0  0  0  0  0
   41.8321   20.3682    3.0264 C   0  0  0  0  0  0  0  0  0  0  0  0
   40.7335   19.5403    2.9102 C   0  0  0  0  0  0  0  0  0  0  0  0
   39.5588   19.8237    3.6066 C   0  0  0  0  0  0  0  0  0  0  0  0
   38.4433   18.9644    3.4878 C   0  0  0  0  0  0  0  0  0  0  0  0
   37.5485   18.2566    3.3783 N   0  0  0  0  0  0  0  0  0  0  0  0
   39.5090   20.9624    4.4172 C   0  0  0  0  0  0  0  0  0  0  0  0
   40.6106   21.7882    4.5256 C   0  0  0  0  0  0  0  0  0  0  0  0
   38.0669   21.3259    5.2939 Cl  0  0  0  0  0  0  0  0  0  0  0  0
   48.8891   19.6360    3.3449 H   0  0  0  0  0  0  0  0  0  0  0  0
   48.0558   18.2426    2.6590 H   0  0  0  0  0  0  0  0  0  0  0  0
   47.9660   19.8213    1.8462 H   0  0  0  0  0  0  0  0  0  0  0  0
   47.0906   18.2351    5.1848 H   0  0  0  0  0  0  0  0  0  0  0  0
   45.4753   18.0736    6.9686 H   0  0  0  0  0  0  0  0  0  0  0  0
   41.7282   18.3521    9.5946 H   0  0  0  0  0  0  0  0  0  0  0  0
   40.6414   20.3014    8.1497 H   0  0  0  0  0  0  0  0  0  0  0  0
   45.3300   22.1239    1.6475 H   0  0  0  0  0  0  0  0  0  0  0  0
   43.5959   22.4253    1.3708 H   0  0  0  0  0  0  0  0  0  0  0  0
   44.5975   23.6575    2.1689 H   0  0  0  0  0  0  0  0  0  0  0  0
   43.2003   22.4177    5.1108 H   0  0  0  0  0  0  0  0  0  0  0  0
   42.7266   23.4113    3.7178 H   0  0  0  0  0  0  0  0  0  0  0  0
   42.7373   20.1255    2.4921 H   0  0  0  0  0  0  0  0  0  0  0  0
   40.7717   18.6608    2.2849 H   0  0  0  0  0  0  0  0  0  0  0  0
   40.5619   22.6570    5.1633 H   0  0  0  0  0  0  0  0  0  0  0  0
  1  2  1  0
  2  3  2  0
  2  7  1  0
  3  4  1  0
  4  5  2  0
  4 14  1  0
  5  6  1  0
  6  7  2  0
  6  8  1  0
  8  9  1  0
  9 10  2  0
  9 13  1  0
 10 11  1  0
 11 12  2  0
 12 13  1  0
 14 15  1  0
 14 16  1  0
 16 17  1  0
 17 18  2  0
 17 24  1  0
 18 19  1  0
 19 20  2  0
 20 21  1  0
 20 23  1  0
 21 22  3  0
 23 24  2  0
 23 25  1  0
  1 26  1  0
  1 27  1  0
  1 28  1  0
  7 29  1  0
  8 30  1  0
 11 31  1  0
 12 32  1  0
 15 33  1  0
 15 34  1  0
 15 35  1  0
 16 36  1  0
 16 37  1  0
 18 38  1  0
 19 39  1  0
 24 40  1  0
M  END
>  <Energy_gxTB>
-1843.77592491

>  <Relative_energy_DFT>
1.003

>  <Total Formal Charge>
0

>  <Field Similarity_cresset>
0.642

>  <Raw Field Score_cresset>
-87.942

>  <Penalised Field Score_cresset>
-87.942

>  <Shape Similarity_cresset>
0.850

>  <Raw Shape Score_cresset>
205.876

>  <Penalised Shape Score_cresset>
205.876

>  <Excluded Volume Clash Penalty_cresset>
0.000

>  <Field Value Penalty_cresset>
0.000

>  <Sim>
0.746

>  <Preferred Pose_cresset>
true

>  <Favorite_cresset>
true

>  <Ref_cresset>
A IDW 2301

>  <MW_cresset>
370.9

>  <#Atoms_cresset>
25

>  <SlogP_cresset>
4.2

>  <TPSA_cresset>
77.7

>  <Flexibility_cresset>
2.8

>  <HBA_cresset>
6

>  <HBD_cresset>
1

>  <Rof5_cresset>
0

>  <Confs_cresset>
1

>  <Poses_cresset>
10

>  <_cresset_fieldpoints2>
 2
    -5      47.224007      22.164503       2.884521     -6.8511
    -5      45.527191      19.933310       1.303844     -5.8195
    -5      44.076176      17.014725       9.403486     -9.2397
    -5      45.116425      22.004335       6.510913     -4.2617
    -5      35.951473      17.202284       3.432750    -14.2893
    -6      47.067017      17.014223       6.871861     10.4785
    -6      41.517685      24.428257       5.611453      4.7920
    -6      42.297653      24.731661       1.972160      3.5553
    -6      42.988060      20.115553       0.282716      2.6824
    -6      42.035801      17.874882       0.876401      3.3767
    -7      47.676872      22.742176       2.802740     -1.9715
    -7      45.640549      24.000828       4.885739     -1.7963
    -7      49.482285      17.449808       5.059015     -1.3397
    -7      46.710274      20.186317       8.318194     -1.5506
    -7      45.048714      22.380314       6.897544     -2.5723
    -7      42.648514      17.538801       4.626072     -2.9640
    -7      44.263508      16.301668       5.259948     -1.6945
    -7      38.812244      18.657953       6.770073     -2.4262
    -7      39.795982      22.592896       7.582169     -2.2419
    -7      41.362736      17.540541       5.408107     -3.0043
    -7      41.847450      23.315392       7.220098     -2.3478
    -7      44.577572      19.399374       1.022259     -2.5528
    -7      41.043011      23.236118       1.221352     -2.1611
    -8      47.436111      18.985022       3.842556      4.6323
    -8      40.672470      20.662254       3.732947      7.1133
    -8      46.509712      19.126108       4.595450      4.0420
    -8      44.543205      22.945450       1.318768      2.5469
    -8      42.332268      19.708185       7.532171      5.3148
    -8      39.300129      20.969227       4.525826      5.6318

$$$$
