CONF_34_A (1)
  xed2sdf           3D
 
 40 42  0  0  0  0  0  0  0  0999 V2000
   47.8624   19.1163    2.5588 C   0  0  0  0  0  0  0  0  0  0  0  0
   46.7261   19.5452    3.4307 C   0  0  0  0  0  0  0  0  0  0  0  0
   46.0050   20.5759    3.0102 N   0  0  0  0  0  0  0  0  0  0  0  0
   44.9870   20.9792    3.7740 C   0  0  0  0  0  0  0  0  0  0  0  0
   44.6189   20.4061    4.9289 N   0  0  0  0  0  0  0  0  0  0  0  0
   45.3341   19.3658    5.3357 C   0  0  0  0  0  0  0  0  0  0  0  0
   46.4342   18.8896    4.6171 C   0  0  0  0  0  0  0  0  0  0  0  0
   44.9479   18.7533    6.4979 N   0  0  0  0  0  0  0  0  0  0  0  0
   43.8254   19.0574    7.2038 C   0  0  0  0  0  0  0  0  0  0  0  0
   43.4679   18.4152    8.2642 N   0  0  0  0  0  0  0  0  0  0  0  0
   42.3032   18.9069    8.7601 C   0  0  0  0  0  0  0  0  0  0  0  0
   41.7645   19.9385    8.0703 C   0  0  0  0  0  0  0  0  0  0  0  0
   42.7572   20.3455    6.7074 S   0  0  0  0  0  0  0  0  0  0  0  0
   44.2818   22.0514    3.3601 N   0  0  0  0  0  0  0  0  0  0  0  0
   44.5011   22.6359    2.0616 C   0  0  0  0  0  0  0  0  0  0  0  0
   43.1712   22.5360    4.1342 C   0  0  0  0  0  0  0  0  0  0  0  0
   41.8862   21.7661    3.9486 C   0  0  0  0  0  0  0  0  0  0  0  0
   40.7294   22.2209    4.5788 C   0  0  0  0  0  0  0  0  0  0  0  0
   39.5503   21.5164    4.4779 C   0  0  0  0  0  0  0  0  0  0  0  0
   39.4999   20.3323    3.7381 C   0  0  0  0  0  0  0  0  0  0  0  0
   38.2888   19.6100    3.6468 C   0  0  0  0  0  0  0  0  0  0  0  0
   37.2971   19.0392    3.5822 N   0  0  0  0  0  0  0  0  0  0  0  0
   40.6580   19.8831    3.1002 C   0  0  0  0  0  0  0  0  0  0  0  0
   41.8385   20.5981    3.2031 C   0  0  0  0  0  0  0  0  0  0  0  0
   40.6189   18.4214    2.1823 Cl  0  0  0  0  0  0  0  0  0  0  0  0
   48.7885   19.0968    3.1299 H   0  0  0  0  0  0  0  0  0  0  0  0
   47.6798   18.1135    2.1761 H   0  0  0  0  0  0  0  0  0  0  0  0
   47.9637   19.8038    1.7247 H   0  0  0  0  0  0  0  0  0  0  0  0
   47.0102   18.0472    4.9615 H   0  0  0  0  0  0  0  0  0  0  0  0
   45.4830   17.9653    6.8331 H   0  0  0  0  0  0  0  0  0  0  0  0
   41.8958   18.4542    9.6456 H   0  0  0  0  0  0  0  0  0  0  0  0
   40.8623   20.4789    8.2670 H   0  0  0  0  0  0  0  0  0  0  0  0
   43.6174   22.5133    1.4296 H   0  0  0  0  0  0  0  0  0  0  0  0
   44.7180   23.7021    2.1618 H   0  0  0  0  0  0  0  0  0  0  0  0
   45.3500   22.1362    1.6030 H   0  0  0  0  0  0  0  0  0  0  0  0
   43.4401   22.4771    5.1940 H   0  0  0  0  0  0  0  0  0  0  0  0
   43.0077   23.5871    3.8773 H   0  0  0  0  0  0  0  0  0  0  0  0
   40.7641   23.1292    5.1611 H   0  0  0  0  0  0  0  0  0  0  0  0
   38.6541   21.8637    4.9703 H   0  0  0  0  0  0  0  0  0  0  0  0
   42.7216   20.2255    2.7094 H   0  0  0  0  0  0  0  0  0  0  0  0
  1  2  1  0
  2  3  2  0
  2  7  1  0
  3  4  1  0
  4  5  2  0
  4 14  1  0
  5  6  1  0
  6  7  2  0
  6  8  1  0
  8  9  1  0
  9 10  2  0
  9 13  1  0
 10 11  1  0
 11 12  2  0
 12 13  1  0
 14 15  1  0
 14 16  1  0
 16 17  1  0
 17 18  2  0
 17 24  1  0
 18 19  1  0
 19 20  2  0
 20 21  1  0
 20 23  1  0
 21 22  3  0
 23 24  2  0
 23 25  1  0
  1 26  1  0
  1 27  1  0
  1 28  1  0
  7 29  1  0
  8 30  1  0
 11 31  1  0
 12 32  1  0
 15 33  1  0
 15 34  1  0
 15 35  1  0
 16 36  1  0
 16 37  1  0
 18 38  1  0
 19 39  1  0
 24 40  1  0
M  END
>  <Energy_gxTB>
-1843.77585360

>  <Relative_energy_DFT>
0.936

>  <Total Formal Charge>
0

>  <Field Similarity_cresset>
0.651

>  <Raw Field Score_cresset>
-90.397

>  <Penalised Field Score_cresset>
-90.397

>  <Shape Similarity_cresset>
0.839

>  <Raw Shape Score_cresset>
203.158

>  <Penalised Shape Score_cresset>
203.158

>  <Excluded Volume Clash Penalty_cresset>
0.000

>  <Field Value Penalty_cresset>
0.000

>  <Sim>
0.745

>  <Preferred Pose_cresset>
true

>  <Favorite_cresset>
true

>  <Ref_cresset>
A IDW 2301

>  <MW_cresset>
370.9

>  <#Atoms_cresset>
25

>  <SlogP_cresset>
4.2

>  <TPSA_cresset>
77.7

>  <Flexibility_cresset>
2.8

>  <HBA_cresset>
6

>  <HBD_cresset>
1

>  <Rof5_cresset>
0

>  <Confs_cresset>
1

>  <Poses_cresset>
10

>  <_cresset_fieldpoints2>
 2
    -5      47.303230      22.034132       2.767027     -6.9283
    -5      35.857235      17.828098       3.228439    -14.2866
    -5      45.394657      19.944876       1.201153     -5.9921
    -5      45.380676      21.908846       6.488646     -4.2854
    -5      42.640266      17.931166       4.588195     -3.1373
    -5      44.170864      17.006701       9.353788     -9.2478
    -6      46.994347      16.806654       6.637409     10.4411
    -6      39.370621      21.917440       7.526875      4.4548
    -6      38.781166      23.621361       6.372440      4.3867
    -6      41.866238      24.814997       5.615280      4.7327
    -6      42.537907      24.982410       2.204075      3.5849
    -6      42.673714      20.756872       0.225887      1.9451
    -7      48.725956      16.394770       4.173658     -1.3384
    -7      46.927753      19.946676       8.164687     -1.5446
    -7      44.250370      19.364563       1.068404     -2.6986
    -7      45.347202      22.275225       6.897767     -2.5691
    -7      47.779617      22.580715       2.656463     -1.9730
    -7      43.985062      15.883689       7.712816     -1.2900
    -7      42.619308      17.657261       4.514324     -3.2521
    -7      42.154465      23.422682       7.325013     -2.3455
    -7      41.418972      17.709072       5.317285     -3.1700
    -7      45.991978      23.949055       4.790360     -1.7865
    -7      41.003178      23.131695       1.129867     -2.2132
    -8      47.333950      18.795668       3.610245      4.6341
    -8      42.488510      19.793894       7.566165      5.3086
    -8      40.696434      21.045786       3.849623      7.1120
    -8      44.579819      22.993275       1.318189      2.5480
    -8      46.467529      18.989616       4.422378      4.0432
    -8      40.609108      19.679045       2.991238      5.6209

$$$$
