CONF_34
  xed2sdf           3D
 
 40 42  0  0  0  0  0  0  0  0999 V2000
   48.0320   19.5581    2.8979 C   0  0  0  0  0  0  0  0  0  0  0  0
   46.8289   19.8621    3.7320 C   0  0  0  0  0  0  0  0  0  0  0  0
   46.0618   20.8676    3.3324 N   0  0  0  0  0  0  0  0  0  0  0  0
   44.9844   21.1606    4.0643 C   0  0  0  0  0  0  0  0  0  0  0  0
   44.5998   20.4983    5.1648 N   0  0  0  0  0  0  0  0  0  0  0  0
   45.3621   19.4830    5.5496 C   0  0  0  0  0  0  0  0  0  0  0  0
   46.5249   19.1212    4.8639 C   0  0  0  0  0  0  0  0  0  0  0  0
   44.9615   18.7794    6.6538 N   0  0  0  0  0  0  0  0  0  0  0  0
   43.7876   18.9676    7.3149 C   0  0  0  0  0  0  0  0  0  0  0  0
   43.4192   18.2378    8.3130 N   0  0  0  0  0  0  0  0  0  0  0  0
   42.2020   18.6248    8.7744 C   0  0  0  0  0  0  0  0  0  0  0  0
   41.6339   19.6644    8.1213 C   0  0  0  0  0  0  0  0  0  0  0  0
   42.6652   20.2177    6.8412 S   0  0  0  0  0  0  0  0  0  0  0  0
   44.2304   22.2083    3.6746 N   0  0  0  0  0  0  0  0  0  0  0  0
   44.4756   22.8841    2.4260 C   0  0  0  0  0  0  0  0  0  0  0  0
   43.0545   22.5755    4.4162 C   0  0  0  0  0  0  0  0  0  0  0  0
   41.8353   21.7341    4.1261 C   0  0  0  0  0  0  0  0  0  0  0  0
   40.6254   22.0675    4.7319 C   0  0  0  0  0  0  0  0  0  0  0  0
   39.5036   21.2929    4.5355 C   0  0  0  0  0  0  0  0  0  0  0  0
   39.5660   20.1589    3.7219 C   0  0  0  0  0  0  0  0  0  0  0  0
   38.4131   19.3640    3.5325 C   0  0  0  0  0  0  0  0  0  0  0  0
   37.4667   18.7333    3.3913 N   0  0  0  0  0  0  0  0  0  0  0  0
   40.7772   19.8318    3.1085 C   0  0  0  0  0  0  0  0  0  0  0  0
   41.8995   20.6169    3.3077 C   0  0  0  0  0  0  0  0  0  0  0  0
   40.8771   18.4341    2.1001 Cl  0  0  0  0  0  0  0  0  0  0  0  0
   48.9318   19.5976    3.5086 H   0  0  0  0  0  0  0  0  0  0  0  0
   47.9517   18.5568    2.4784 H   0  0  0  0  0  0  0  0  0  0  0  0
   48.1096   20.2799    2.0907 H   0  0  0  0  0  0  0  0  0  0  0  0
   47.1385   18.2987    5.1907 H   0  0  0  0  0  0  0  0  0  0  0  0
   45.5293   18.0060    6.9692 H   0  0  0  0  0  0  0  0  0  0  0  0
   41.7804   18.0917    9.6071 H   0  0  0  0  0  0  0  0  0  0  0  0
   40.6902   20.1353    8.3020 H   0  0  0  0  0  0  0  0  0  0  0  0
   43.6304   22.7535    1.7450 H   0  0  0  0  0  0  0  0  0  0  0  0
   44.6264   23.9521    2.6000 H   0  0  0  0  0  0  0  0  0  0  0  0
   45.3720   22.4609    1.9809 H   0  0  0  0  0  0  0  0  0  0  0  0
   43.2767   22.4764    5.4837 H   0  0  0  0  0  0  0  0  0  0  0  0
   42.8317   23.6260    4.2059 H   0  0  0  0  0  0  0  0  0  0  0  0
   40.5731   22.9359    5.3710 H   0  0  0  0  0  0  0  0  0  0  0  0
   38.5666   21.5458    5.0089 H   0  0  0  0  0  0  0  0  0  0  0  0
   42.8254   20.3379    2.8309 H   0  0  0  0  0  0  0  0  0  0  0  0
  1  2  1  0
  2  3  2  0
  2  7  1  0
  3  4  1  0
  4  5  2  0
  4 14  1  0
  5  6  1  0
  6  7  2  0
  6  8  1  0
  8  9  1  0
  9 10  2  0
  9 13  1  0
 10 11  1  0
 11 12  2  0
 12 13  1  0
 14 15  1  0
 14 16  1  0
 16 17  1  0
 17 18  2  0
 17 24  1  0
 18 19  1  0
 19 20  2  0
 20 21  1  0
 20 23  1  0
 21 22  3  0
 23 24  2  0
 23 25  1  0
  1 26  1  0
  1 27  1  0
  1 28  1  0
  7 29  1  0
  8 30  1  0
 11 31  1  0
 12 32  1  0
 15 33  1  0
 15 34  1  0
 15 35  1  0
 16 36  1  0
 16 37  1  0
 18 38  1  0
 19 39  1  0
 24 40  1  0
M  END
>  <Total Formal Charge>
0

>  <Sim>
0.766

>  <QM_ENERGY>
-1843.96201

>  <HOMO>
-0.215374

>  <LUMO>
-0.06656

>  <DIPOLE>
6.488

>  <Protein>
7Z5W

>  <Favorite_cresset>
false

>  <Protein_cresset>
7Z5W [Unassociated]

>  <MW_cresset>
370.9

>  <#Atoms_cresset>
25

>  <SlogP_cresset>
4.2

>  <TPSA_cresset>
77.7

>  <Flexibility_cresset>
2.8

>  <HBA_cresset>
6

>  <HBD_cresset>
1

>  <Rof5_cresset>
0

>  <Confs_cresset>
0

>  <Poses_cresset>
0

>  <_cresset_fieldpoints2>
 2
    -5      46.369015      20.288992       1.398289     -5.7050
    -5      47.272800      22.639954       3.356012     -8.2230
    -5      43.074799      15.960443       8.024101     -9.8640
    -5      45.117210      22.088329       6.464031     -3.3665
    -5      36.216709      17.211716       4.911036    -14.3270
    -5      42.871658      17.836517       4.171069     -3.1575
    -6      46.486954      16.580753       6.128201     10.1015
    -6      41.783459      24.917820       5.199032      4.7530
    -6      43.091297      25.424259       2.040782      3.6675
    -6      39.207497      21.650799       7.903995      4.6160
    -6      39.148415      23.207909       7.158249      4.2575
    -7      45.877964      23.793966       5.194131     -1.8785
    -7      49.220066      17.311518       5.451738     -1.3465
    -7      47.667656      23.248783       3.477522     -2.0215
    -7      44.048676      19.840267       0.922554     -2.2395
    -7      42.925102      17.373684       4.018273     -2.8930
    -7      41.068375      17.146183       5.437160     -2.8935
    -7      40.945713      22.957106       7.947776     -1.9975
    -7      45.104149      22.443972       6.690638     -2.5360
    -7      42.476303      23.507156       7.260444     -2.1180
    -7      41.317844      22.780634       0.805176     -2.0180
    -7      43.061947      25.713654       1.844746     -1.2010
    -7      41.835506      25.318665       5.175488     -1.5105
    -7      39.221123      22.382570       1.678568     -1.9860
    -7      38.334980      20.066605       7.813603     -1.9500
    -8      47.629993      19.381544       4.292067      4.6895
    -8      40.677662      20.904589       4.149178      7.1840
    -8      42.283886      19.570536       7.640889      5.2790
    -8      46.534718      19.359205       4.718699      4.1235
    -8      43.689972      23.205330       2.720841      2.4930
    -8      45.024223      23.384409       1.454678      2.5020
    -8      40.503983      19.491478       3.378850      5.6215

$$$$
